Version 4
SHEET 1 880 680
WIRE 320 -240 224 -240
WIRE 80 -176 80 -240
WIRE 32 -96 -80 -96
FLAG 64 288 0
FLAG -80 -16 0
FLAG 320 -160 0
FLAG 80 -80 0
SYMBOL nmos 32 -176 R0
SYMATTR InstName M1
SYMATTR Value 2N7002
SYMBOL voltage -80 -112 R0
WINDOW 123 0 0 Left 2
WINDOW 39 0 0 Left 2
SYMATTR InstName V1
SYMATTR Value PULSE(0 3.3 10n 0.1n 0.1n 130n 260n 10)
SYMBOL res 176 -256 R90
WINDOW 0 0 56 VBottom 2
WINDOW 3 41 53 VTop 2
SYMATTR InstName R1
SYMATTR Value 30
SYMBOL LED 224 -256 R90
WINDOW 0 0 32 VBottom 2
WINDOW 3 72 32 VTop 2
SYMATTR InstName D1
SYMATTR Value NSCW100
SYMBOL voltage 320 -256 R0
WINDOW 0 32 56 VTop 2
WINDOW 3 -32 56 VBottom 2
WINDOW 123 0 0 Left 2
WINDOW 39 0 0 Left 2
SYMATTR InstName V2
SYMATTR Value 5
TEXT -144 -208 Left 2 !.tran 0 1000n 0 1n
